Version 4
SHEET 1 13504 21184
WIRE -5552 15856 -5552 15808
WIRE -5360 15856 -5360 15808
WIRE -4704 15856 -4704 15808
WIRE -4512 15856 -4512 15808
WIRE -4096 15888 -4096 15840
WIRE -3968 15888 -3968 15856
WIRE -3840 15888 -3840 15856
WIRE -5456 15904 -5488 15904
WIRE -5424 15904 -5456 15904
WIRE -4608 15904 -4640 15904
WIRE -4576 15904 -4608 15904
WIRE -5456 15984 -5456 15904
WIRE -5360 15984 -5360 15952
WIRE -5360 15984 -5456 15984
WIRE -4608 15984 -4608 15904
WIRE -4512 15984 -4512 15952
WIRE -4512 15984 -4608 15984
WIRE -4096 16000 -4096 15968
WIRE -3968 16000 -3968 15968
WIRE -3840 16000 -3840 15968
WIRE -5552 16016 -5552 15952
WIRE -5360 16016 -5360 15984
WIRE -4704 16016 -4704 15952
WIRE -4512 16016 -4512 15984
WIRE -5456 16064 -5488 16064
WIRE -5424 16064 -5456 16064
WIRE -4608 16064 -4640 16064
WIRE -4576 16064 -4608 16064
WIRE -5552 16144 -5552 16112
WIRE -5552 16144 -5984 16144
WIRE -5456 16144 -5456 16064
WIRE -5456 16144 -5552 16144
WIRE -4704 16144 -4704 16112
WIRE -4704 16144 -4928 16144
WIRE -4608 16144 -4608 16064
WIRE -4608 16144 -4704 16144
WIRE 3824 16160 3120 16160
WIRE -5360 16192 -5360 16112
WIRE -5360 16192 -5792 16192
WIRE -5248 16192 -5248 16160
WIRE -5248 16192 -5360 16192
WIRE -4512 16192 -4512 16112
WIRE -4512 16192 -5120 16192
WIRE -4400 16192 -4400 16160
WIRE -4400 16192 -4512 16192
WIRE -2256 16208 -2256 16160
WIRE -2064 16208 -2064 16160
WIRE -1008 16208 -1008 16160
WIRE -816 16208 -816 16160
WIRE -5984 16224 -5984 16144
WIRE -5792 16224 -5792 16192
WIRE -5552 16224 -5552 16144
WIRE -5360 16224 -5360 16192
WIRE -5120 16224 -5120 16192
WIRE -4928 16224 -4928 16144
WIRE -4704 16224 -4704 16144
WIRE -4512 16224 -4512 16192
WIRE -4128 16224 -4128 16176
WIRE -4160 16240 -4192 16240
WIRE -3968 16256 -4096 16256
WIRE -3808 16256 -3808 16208
WIRE -3808 16256 -3968 16256
WIRE -3696 16256 -3808 16256
WIRE -3552 16256 -3552 16208
WIRE -3552 16256 -3616 16256
WIRE -3488 16256 -3552 16256
WIRE -3344 16256 -3344 16192
WIRE -3344 16256 -3408 16256
WIRE -2160 16256 -2192 16256
WIRE -2128 16256 -2160 16256
WIRE -912 16256 -944 16256
WIRE -880 16256 -912 16256
WIRE -6048 16272 -6080 16272
WIRE -5664 16272 -5728 16272
WIRE -5616 16272 -5664 16272
WIRE -5248 16272 -5248 16192
WIRE -5248 16272 -5296 16272
WIRE -5184 16272 -5248 16272
WIRE -4800 16272 -4864 16272
WIRE -4768 16272 -4800 16272
WIRE -4400 16272 -4400 16192
WIRE -4400 16272 -4448 16272
WIRE -4160 16272 -4224 16272
WIRE -3968 16272 -3968 16256
WIRE -3808 16272 -3808 16256
WIRE -3344 16272 -3344 16256
WIRE 3536 16272 3536 16224
WIRE 3728 16272 3728 16224
WIRE -5664 16304 -5664 16272
WIRE -4800 16304 -4800 16272
WIRE 5424 16304 5424 16240
WIRE 6272 16304 5424 16304
WIRE -6080 16320 -6080 16272
WIRE -5248 16320 -5248 16272
WIRE -4400 16320 -4400 16272
WIRE 192 16320 144 16320
WIRE 496 16320 256 16320
WIRE 3632 16320 3600 16320
WIRE 3664 16320 3632 16320
WIRE -4128 16336 -4128 16288
WIRE -2160 16336 -2160 16256
WIRE -2064 16336 -2064 16304
WIRE -2064 16336 -2160 16336
WIRE -912 16336 -912 16256
WIRE -816 16336 -816 16304
WIRE -816 16336 -912 16336
WIRE -5984 16352 -5984 16320
WIRE -5888 16352 -5984 16352
WIRE -5792 16352 -5792 16320
WIRE -5792 16352 -5888 16352
WIRE -5552 16352 -5552 16320
WIRE -5456 16352 -5552 16352
WIRE -5360 16352 -5360 16320
WIRE -5360 16352 -5456 16352
WIRE -5120 16352 -5120 16320
WIRE -5024 16352 -5120 16352
WIRE -4928 16352 -4928 16320
WIRE -4928 16352 -5024 16352
WIRE -4704 16352 -4704 16320
WIRE -4608 16352 -4704 16352
WIRE -4512 16352 -4512 16320
WIRE -4512 16352 -4608 16352
WIRE -3344 16368 -3344 16336
WIRE -2256 16368 -2256 16304
WIRE -2064 16368 -2064 16336
WIRE -1792 16368 -1920 16368
WIRE -1696 16368 -1792 16368
WIRE -1584 16368 -1584 16320
WIRE -1584 16368 -1632 16368
WIRE -1008 16368 -1008 16304
WIRE -816 16368 -816 16336
WIRE -544 16368 -672 16368
WIRE 2720 16368 2720 16320
WIRE 2912 16368 2912 16320
WIRE 5312 16368 5232 16368
WIRE 5680 16368 5552 16368
WIRE 5776 16368 5776 16192
WIRE 5776 16368 5680 16368
WIRE 5856 16368 5776 16368
WIRE 6000 16368 5856 16368
WIRE 6192 16368 6080 16368
WIRE 6272 16368 6272 16304
WIRE 6272 16368 6192 16368
WIRE -4192 16384 -4192 16240
WIRE -3968 16384 -3968 16352
WIRE -3968 16384 -4192 16384
WIRE -3936 16384 -3968 16384
WIRE -3808 16384 -3808 16352
WIRE -3760 16384 -3808 16384
WIRE -1584 16384 -1584 16368
WIRE 320 16384 288 16384
WIRE 496 16384 496 16320
WIRE 496 16384 400 16384
WIRE 4144 16384 4144 16336
WIRE 4336 16384 4336 16336
WIRE 3632 16400 3632 16320
WIRE 3728 16400 3728 16368
WIRE 3728 16400 3632 16400
WIRE -5248 16416 -5248 16384
WIRE -4400 16416 -4400 16384
WIRE -3968 16416 -3968 16384
WIRE -3808 16416 -3808 16384
WIRE -2160 16416 -2192 16416
WIRE -2128 16416 -2160 16416
WIRE -912 16416 -944 16416
WIRE -880 16416 -912 16416
WIRE 2816 16416 2784 16416
WIRE 2848 16416 2816 16416
WIRE 5312 16416 5312 16368
WIRE 5552 16416 5552 16368
WIRE 5680 16416 5680 16368
WIRE 5856 16416 5856 16368
WIRE 6080 16416 6080 16368
WIRE 6272 16416 6272 16368
WIRE 3536 16432 3536 16368
WIRE 3728 16432 3728 16400
WIRE 3824 16432 3824 16160
WIRE 3952 16432 3824 16432
WIRE 4240 16432 4208 16432
WIRE 4272 16432 4240 16432
WIRE 5232 16432 5232 16368
WIRE 5264 16432 5232 16432
WIRE 5504 16432 5472 16432
WIRE 5776 16432 5776 16368
WIRE 5808 16432 5776 16432
WIRE 6000 16432 6000 16368
WIRE 6032 16432 6000 16432
WIRE 6192 16432 6192 16368
WIRE 6224 16432 6192 16432
WIRE -5888 16448 -5888 16352
WIRE -5888 16448 -6112 16448
WIRE -5664 16448 -5888 16448
WIRE -1856 16448 -1856 16400
WIRE -608 16448 -608 16400
WIRE -5024 16464 -5024 16352
WIRE -4608 16464 -4608 16352
WIRE -1920 16464 -1920 16368
WIRE -1888 16464 -1920 16464
WIRE -672 16464 -672 16368
WIRE -640 16464 -672 16464
WIRE 432 16464 432 16416
WIRE -6112 16480 -6112 16448
WIRE -5888 16480 -5888 16448
WIRE -5664 16480 -5664 16448
WIRE -5456 16480 -5456 16352
WIRE -1792 16480 -1792 16368
WIRE -1792 16480 -1824 16480
WIRE -1744 16480 -1792 16480
WIRE -544 16480 -544 16368
WIRE -544 16480 -576 16480
WIRE -496 16480 -544 16480
WIRE 16 16480 -32 16480
WIRE 144 16480 144 16320
WIRE 144 16480 96 16480
WIRE 192 16480 144 16480
WIRE 288 16480 288 16384
WIRE 288 16480 256 16480
WIRE 400 16480 288 16480
WIRE 3632 16480 3600 16480
WIRE 3664 16480 3632 16480
WIRE 5264 16480 4960 16480
WIRE 5424 16480 5424 16304
WIRE 5504 16480 5424 16480
WIRE -2256 16496 -2256 16464
WIRE -2160 16496 -2160 16416
WIRE -2160 16496 -2256 16496
WIRE -2064 16496 -2064 16464
WIRE -1968 16496 -1968 16464
WIRE -1968 16496 -2064 16496
WIRE -1888 16496 -1968 16496
WIRE -1008 16496 -1008 16464
WIRE -912 16496 -912 16416
WIRE -912 16496 -1008 16496
WIRE -816 16496 -816 16464
WIRE -720 16496 -720 16464
WIRE -720 16496 -816 16496
WIRE -640 16496 -720 16496
WIRE 496 16496 496 16384
WIRE 496 16496 464 16496
WIRE 2816 16496 2816 16416
WIRE 2912 16496 2912 16464
WIRE 2912 16496 2816 16496
WIRE -5088 16512 -5120 16512
WIRE -4672 16512 -4704 16512
WIRE 400 16512 368 16512
WIRE 3888 16512 3888 16464
WIRE 4240 16512 4240 16432
WIRE 4336 16512 4336 16480
WIRE 4336 16512 4240 16512
WIRE 4960 16512 4960 16480
WIRE 5472 16512 5472 16432
WIRE 5552 16512 5552 16496
WIRE 5552 16512 5472 16512
WIRE 5680 16512 5680 16480
WIRE 5808 16512 5808 16480
WIRE 5856 16512 5856 16496
WIRE 5856 16512 5808 16512
WIRE 6032 16512 6032 16480
WIRE 6080 16512 6080 16496
WIRE 6080 16512 6032 16512
WIRE 6224 16512 6224 16480
WIRE 6272 16512 6272 16496
WIRE 6272 16512 6224 16512
WIRE -6176 16528 -6208 16528
WIRE -5952 16528 -5984 16528
WIRE -5728 16528 -5760 16528
WIRE -5520 16528 -5552 16528
WIRE -3968 16528 -3968 16496
WIRE -3808 16528 -3808 16496
WIRE -1968 16528 -1968 16496
WIRE -1792 16528 -1792 16480
WIRE -720 16528 -720 16496
WIRE -544 16528 -544 16480
WIRE 2720 16528 2720 16464
WIRE 2912 16528 2912 16496
WIRE 3824 16528 3824 16432
WIRE 3856 16528 3824 16528
WIRE 5424 16528 5424 16480
WIRE -5120 16544 -5120 16512
WIRE -4704 16544 -4704 16512
WIRE -2256 16544 -2256 16496
WIRE -2256 16544 -2640 16544
WIRE -1856 16544 -1856 16512
WIRE -816 16544 -816 16496
WIRE -816 16544 -1392 16544
WIRE -608 16544 -608 16512
WIRE 368 16544 368 16512
WIRE 3120 16544 3120 16160
WIRE 3952 16544 3952 16432
WIRE 3952 16544 3920 16544
WIRE 4144 16544 4144 16480
WIRE 4336 16544 4336 16512
WIRE 5312 16544 5312 16496
WIRE 5552 16544 5552 16512
WIRE 5856 16544 5856 16512
WIRE 6080 16544 6080 16512
WIRE 6272 16544 6272 16512
WIRE -6208 16560 -6208 16528
WIRE -5984 16560 -5984 16528
WIRE -5760 16560 -5760 16528
WIRE -5552 16560 -5552 16528
WIRE 432 16560 432 16528
WIRE 3536 16560 3536 16528
WIRE 3632 16560 3632 16480
WIRE 3632 16560 3536 16560
WIRE 3856 16560 3824 16560
WIRE -2064 16576 -2064 16496
WIRE -2064 16576 -2448 16576
WIRE -1008 16576 -1008 16496
WIRE -1008 16576 -1200 16576
WIRE 2816 16576 2784 16576
WIRE 2848 16576 2816 16576
WIRE -5024 16592 -5024 16560
WIRE -4608 16592 -4608 16560
WIRE 4240 16592 4208 16592
WIRE 4272 16592 4240 16592
WIRE -6112 16608 -6112 16576
WIRE -5888 16608 -5888 16576
WIRE -5664 16608 -5664 16576
WIRE -5456 16608 -5456 16576
WIRE -2640 16608 -2640 16544
WIRE -2448 16608 -2448 16576
WIRE -2256 16608 -2256 16544
WIRE -2064 16608 -2064 16576
WIRE -1968 16608 -1968 16592
WIRE -1392 16608 -1392 16544
WIRE -1200 16608 -1200 16576
WIRE -1008 16608 -1008 16576
WIRE -816 16608 -816 16544
WIRE -720 16608 -720 16592
WIRE 3888 16608 3888 16576
WIRE 4960 16624 4960 16592
WIRE 5424 16624 5424 16592
WIRE -3072 16656 -3072 16608
WIRE -3008 16656 -3072 16656
WIRE -2704 16656 -2736 16656
WIRE -2352 16656 -2384 16656
WIRE -2320 16656 -2352 16656
WIRE -1968 16656 -2000 16656
WIRE -1792 16656 -1792 16608
WIRE -1456 16656 -1792 16656
WIRE -1104 16656 -1136 16656
WIRE -1072 16656 -1104 16656
WIRE -544 16656 -544 16608
WIRE -544 16656 -752 16656
WIRE 2720 16656 2720 16624
WIRE 2816 16656 2816 16576
WIRE 2816 16656 2720 16656
WIRE 2912 16656 2912 16624
WIRE 3120 16656 3120 16608
WIRE 3120 16656 2912 16656
WIRE -2896 16672 -2896 16608
WIRE 3728 16672 3728 16528
WIRE 3824 16672 3824 16560
WIRE 3824 16672 3728 16672
WIRE 4144 16672 4144 16640
WIRE 4240 16672 4240 16592
WIRE 4240 16672 4144 16672
WIRE -3072 16688 -3072 16656
WIRE -2352 16688 -2352 16656
WIRE -1792 16688 -1792 16656
WIRE -1104 16688 -1104 16656
WIRE -544 16688 -544 16656
WIRE -5024 16704 -5024 16672
WIRE -4608 16704 -4608 16672
WIRE -6112 16720 -6112 16688
WIRE -5888 16720 -5888 16688
WIRE -5664 16720 -5664 16688
WIRE -5456 16720 -5456 16688
WIRE 3120 16720 3120 16656
WIRE 4336 16720 4336 16640
WIRE 4336 16720 3120 16720
WIRE 4432 16720 4336 16720
WIRE -2640 16736 -2640 16704
WIRE -2544 16736 -2640 16736
WIRE -2448 16736 -2448 16704
WIRE -2448 16736 -2544 16736
WIRE -2256 16736 -2256 16704
WIRE -2160 16736 -2256 16736
WIRE -2064 16736 -2064 16704
WIRE -2064 16736 -2160 16736
WIRE -1392 16736 -1392 16704
WIRE -1296 16736 -1392 16736
WIRE -1200 16736 -1200 16704
WIRE -1200 16736 -1296 16736
WIRE -1008 16736 -1008 16704
WIRE -912 16736 -1008 16736
WIRE -816 16736 -816 16704
WIRE -816 16736 -912 16736
WIRE 2720 16784 2720 16656
WIRE 2912 16784 2912 16656
WIRE 3536 16784 3536 16560
WIRE 3728 16784 3728 16672
WIRE 4144 16784 4144 16672
WIRE 4336 16784 4336 16720
WIRE -3072 16800 -3072 16768
WIRE -544 16800 -544 16768
WIRE -2544 16816 -2544 16736
WIRE -2160 16816 -2160 16736
WIRE -1968 16816 -1968 16656
WIRE -1792 16816 -1792 16768
WIRE -1792 16816 -1968 16816
WIRE -1296 16816 -1296 16736
WIRE -912 16816 -912 16736
WIRE 2656 16832 2256 16832
WIRE 3120 16832 3120 16720
WIRE 3120 16832 2976 16832
WIRE 3472 16832 3120 16832
WIRE 3824 16832 3824 16672
WIRE 3824 16832 3792 16832
WIRE 4080 16832 3824 16832
WIRE 4432 16832 4432 16720
WIRE 4432 16832 4400 16832
WIRE -2608 16864 -2640 16864
WIRE -2224 16864 -2256 16864
WIRE -1792 16864 -1792 16816
WIRE -1360 16864 -1392 16864
WIRE -976 16864 -1008 16864
WIRE 160 16880 160 16832
WIRE 352 16880 352 16832
WIRE 1104 16880 1104 16832
WIRE 1296 16880 1296 16832
WIRE -5696 16896 -5696 16848
WIRE -5504 16896 -5504 16848
WIRE -2640 16896 -2640 16864
WIRE -2256 16896 -2256 16864
WIRE -1392 16896 -1392 16864
WIRE -1008 16896 -1008 16864
WIRE -4208 16912 -4208 16864
WIRE -3664 16912 -3664 16864
WIRE 2720 16912 2720 16880
WIRE 2816 16912 2720 16912
WIRE 2912 16912 2912 16880
WIRE 2912 16912 2816 16912
WIRE 3536 16912 3536 16880
WIRE 3632 16912 3536 16912
WIRE 3728 16912 3728 16880
WIRE 3728 16912 3632 16912
WIRE 3824 16912 3824 16832
WIRE 4144 16912 4144 16880
WIRE 4240 16912 4144 16912
WIRE 4336 16912 4336 16880
WIRE 4336 16912 4240 16912
WIRE 256 16928 224 16928
WIRE 288 16928 256 16928
WIRE 1200 16928 1168 16928
WIRE 1232 16928 1200 16928
WIRE -5600 16944 -5632 16944
WIRE -5568 16944 -5600 16944
WIRE -2544 16944 -2544 16912
WIRE -2160 16944 -2160 16912
WIRE -1296 16944 -1296 16912
WIRE -912 16944 -912 16912
WIRE -4112 16960 -4144 16960
WIRE -3728 16960 -4112 16960
WIRE -1792 16976 -1792 16944
WIRE 2816 16992 2816 16912
WIRE 3632 16992 3632 16912
WIRE 3824 16992 3824 16976
WIRE 4240 16992 4240 16912
WIRE 256 17008 256 16928
WIRE 352 17008 352 16976
WIRE 352 17008 256 17008
WIRE 1200 17008 1200 16928
WIRE 1296 17008 1296 16976
WIRE 1296 17008 1200 17008
WIRE -5600 17024 -5600 16944
WIRE -5504 17024 -5504 16992
WIRE -5504 17024 -5600 17024
WIRE -4112 17024 -4112 16960
WIRE -3408 17040 -3536 17040
WIRE 160 17040 160 16976
WIRE 352 17040 352 17008
WIRE 1104 17040 1104 16976
WIRE 1296 17040 1296 17008
WIRE 2752 17040 2720 17040
WIRE 3568 17040 3536 17040
WIRE 4176 17040 4144 17040
WIRE -5696 17056 -5696 16992
WIRE -5504 17056 -5504 17024
WIRE -2544 17056 -2544 17024
WIRE -2160 17056 -2160 17024
WIRE -1296 17056 -1296 17024
WIRE -912 17056 -912 17024
WIRE -4208 17072 -4208 17008
WIRE -4176 17072 -4208 17072
WIRE 2720 17072 2720 17040
WIRE 3536 17072 3536 17040
WIRE 4144 17072 4144 17040
WIRE 256 17088 224 17088
WIRE 288 17088 256 17088
WIRE 1200 17088 1168 17088
WIRE 1232 17088 1200 17088
WIRE -5600 17104 -5632 17104
WIRE -5568 17104 -5600 17104
WIRE -5152 17104 -5280 17104
WIRE -3472 17120 -3472 17072
WIRE 2816 17120 2816 17088
WIRE 3120 17120 3120 17104
WIRE 3632 17120 3632 17088
WIRE 4240 17120 4240 17088
WIRE -4016 17136 -4016 17088
WIRE -3824 17136 -3824 17088
WIRE -3536 17136 -3536 17040
WIRE -3504 17136 -3536 17136
WIRE -4112 17152 -4112 17120
WIRE -3408 17152 -3408 17040
WIRE -3408 17152 -3440 17152
WIRE 6288 17152 5712 17152
WIRE 7840 17152 7264 17152
WIRE -3664 17168 -3664 17008
WIRE -3584 17168 -3664 17168
WIRE -3504 17168 -3584 17168
WIRE 160 17168 160 17136
WIRE 256 17168 256 17088
WIRE 256 17168 160 17168
WIRE 1104 17168 1104 17136
WIRE 1200 17168 1200 17088
WIRE 1200 17168 1104 17168
WIRE -5696 17184 -5696 17152
WIRE -5600 17184 -5600 17104
WIRE -5600 17184 -5696 17184
WIRE -5216 17184 -5216 17136
WIRE -3920 17184 -3952 17184
WIRE -3888 17184 -3920 17184
WIRE -5280 17200 -5280 17104
WIRE -5248 17200 -5280 17200
WIRE 5328 17200 5328 17152
WIRE 5520 17200 5520 17152
WIRE 6880 17200 6880 17152
WIRE 7072 17200 7072 17152
WIRE -5152 17216 -5152 17104
WIRE -5152 17216 -5184 17216
WIRE -5072 17216 -5152 17216
WIRE -4976 17216 -4976 17184
WIRE -4976 17216 -5008 17216
WIRE -3584 17216 -3584 17168
WIRE -3472 17216 -3472 17184
WIRE 352 17216 352 17136
WIRE 464 17216 464 17152
WIRE 464 17216 352 17216
WIRE 512 17216 464 17216
WIRE 1296 17216 1296 17136
WIRE 1296 17216 576 17216
WIRE 1408 17216 1408 17184
WIRE 1408 17216 1296 17216
WIRE -5504 17232 -5504 17152
WIRE -5344 17232 -5504 17232
WIRE -5248 17232 -5344 17232
WIRE 2816 17232 2816 17200
WIRE 3632 17232 3632 17200
WIRE 4240 17232 4240 17200
WIRE -3920 17248 -3920 17184
WIRE 5424 17248 5392 17248
WIRE 5456 17248 5424 17248
WIRE 6976 17248 6944 17248
WIRE 7008 17248 6976 17248
WIRE 5904 17264 5904 17216
WIRE 6096 17264 6096 17216
WIRE 7456 17264 7456 17216
WIRE 7648 17264 7648 17216
WIRE -5696 17280 -5696 17184
WIRE -5504 17280 -5504 17232
WIRE -5344 17280 -5344 17232
WIRE -5216 17280 -5216 17248
WIRE 160 17280 160 17168
WIRE 352 17280 352 17216
WIRE 1104 17280 1104 17168
WIRE 1296 17280 1296 17216
WIRE -4208 17296 -4208 17072
WIRE -4208 17296 -4656 17296
WIRE -4016 17296 -4016 17232
WIRE -3984 17296 -4016 17296
WIRE -3408 17296 -3408 17152
WIRE -3360 17296 -3408 17296
WIRE -2176 17296 -2176 17248
WIRE -3584 17312 -3584 17280
WIRE 6000 17312 5968 17312
WIRE 6032 17312 6000 17312
WIRE 6464 17312 6336 17312
WIRE 7552 17312 7520 17312
WIRE 7584 17312 7552 17312
WIRE 8016 17312 7888 17312
WIRE -5952 17328 -5952 17280
WIRE -5760 17328 -5792 17328
WIRE -5408 17328 -5440 17328
WIRE -3408 17328 -3408 17296
WIRE 96 17328 -16 17328
WIRE 464 17328 464 17216
WIRE 464 17328 416 17328
WIRE 608 17328 464 17328
WIRE 912 17328 672 17328
WIRE 1040 17328 912 17328
WIRE 1408 17328 1408 17216
WIRE 1408 17328 1360 17328
WIRE 5424 17328 5424 17248
WIRE 5520 17328 5520 17296
WIRE 5520 17328 5424 17328
WIRE 6976 17328 6976 17248
WIRE 7072 17328 7072 17296
WIRE 7072 17328 6976 17328
WIRE -4016 17344 -4016 17296
WIRE -4016 17344 -4464 17344
WIRE -5792 17360 -5792 17328
WIRE 5328 17360 5328 17296
WIRE 5520 17360 5520 17328
WIRE 6880 17360 6880 17296
WIRE 7072 17360 7072 17328
WIRE -3920 17376 -3920 17344
WIRE -4656 17392 -4656 17296
WIRE -4464 17392 -4464 17344
WIRE -4208 17392 -4208 17296
WIRE -4016 17392 -4016 17344
WIRE 6000 17392 6000 17312
WIRE 6096 17392 6096 17360
WIRE 6096 17392 6000 17392
WIRE 6400 17392 6400 17344
WIRE 7552 17392 7552 17312
WIRE 7648 17392 7648 17360
WIRE 7648 17392 7552 17392
WIRE 7952 17392 7952 17344
WIRE -5696 17408 -5696 17376
WIRE -5600 17408 -5696 17408
WIRE -5504 17408 -5504 17376
WIRE -5504 17408 -5600 17408
WIRE 160 17408 160 17376
WIRE 256 17408 160 17408
WIRE 352 17408 352 17376
WIRE 352 17408 256 17408
WIRE 1104 17408 1104 17376
WIRE 1200 17408 1104 17408
WIRE 1296 17408 1296 17376
WIRE 1296 17408 1200 17408
WIRE 2704 17408 2704 17360
WIRE 2896 17408 2896 17360
WIRE 3472 17408 3472 17360
WIRE 3664 17408 3664 17360
WIRE 5424 17408 5392 17408
WIRE 5456 17408 5424 17408
WIRE 6336 17408 6336 17312
WIRE 6368 17408 6336 17408
WIRE 6976 17408 6944 17408
WIRE 7008 17408 6976 17408
WIRE 7888 17408 7888 17312
WIRE 7920 17408 7888 17408
WIRE 5904 17424 5904 17360
WIRE 6096 17424 6096 17392
WIRE 6464 17424 6464 17312
WIRE 6464 17424 6432 17424
WIRE 6512 17424 6464 17424
WIRE 7456 17424 7456 17360
WIRE 7648 17424 7648 17392
WIRE 8016 17424 8016 17312
WIRE 8016 17424 7984 17424
WIRE 8064 17424 8016 17424
WIRE -4720 17440 -4752 17440
WIRE -4368 17440 -4400 17440
WIRE -4272 17440 -4304 17440
WIRE -3408 17440 -3408 17408
WIRE -3408 17440 -3952 17440
WIRE 6208 17440 6208 17392
WIRE 6288 17440 6288 17152
WIRE 6288 17440 6208 17440
WIRE 6368 17440 6288 17440
WIRE 7760 17440 7760 17392
WIRE 7840 17440 7840 17152
WIRE 7840 17440 7760 17440
WIRE 7920 17440 7840 17440
WIRE -5952 17456 -5952 17408
WIRE -5856 17456 -5952 17456
WIRE -5408 17456 -5408 17328
WIRE -5344 17456 -5344 17360
WIRE -5344 17456 -5408 17456
WIRE -4752 17456 -4752 17440
WIRE -4368 17456 -4368 17440
WIRE -4304 17456 -4304 17440
WIRE 256 17456 256 17408
WIRE 256 17456 32 17456
WIRE 2800 17456 2768 17456
WIRE 2832 17456 2800 17456
WIRE 3568 17456 3536 17456
WIRE 3600 17456 3568 17456
WIRE -3408 17472 -3408 17440
WIRE 6000 17472 5968 17472
WIRE 6032 17472 6000 17472
WIRE 6464 17472 6464 17424
WIRE 7552 17472 7520 17472
WIRE 7584 17472 7552 17472
WIRE 8016 17472 8016 17424
WIRE -5952 17488 -5952 17456
WIRE -5600 17488 -5600 17408
WIRE 32 17488 32 17456
WIRE 256 17488 256 17456
WIRE 5328 17488 5328 17456
WIRE 5424 17488 5424 17408
WIRE 5424 17488 5328 17488
WIRE 5520 17488 5520 17456
WIRE 5712 17488 5712 17152
WIRE 5712 17488 5520 17488
WIRE 6208 17488 6208 17440
WIRE 6880 17488 6880 17456
WIRE 6976 17488 6976 17408
WIRE 6976 17488 6880 17488
WIRE 7072 17488 7072 17456
WIRE 7264 17488 7264 17152
WIRE 7264 17488 7072 17488
WIRE 7760 17488 7760 17440
WIRE 1200 17504 1200 17408
WIRE 6400 17504 6400 17456
WIRE 7952 17504 7952 17456
WIRE -4656 17520 -4656 17488
WIRE -4560 17520 -4656 17520
WIRE -4464 17520 -4464 17488
WIRE -4464 17520 -4560 17520
WIRE -4208 17520 -4208 17488
WIRE -4112 17520 -4208 17520
WIRE -4016 17520 -4016 17488
WIRE -4016 17520 -4112 17520
WIRE -3824 17520 -3824 17232
WIRE -3744 17520 -3824 17520
WIRE -5856 17536 -5856 17456
WIRE -5856 17536 -5888 17536
WIRE -5664 17536 -5856 17536
WIRE -5344 17536 -5344 17456
WIRE -32 17536 -64 17536
WIRE 192 17536 160 17536
WIRE 2800 17536 2800 17456
WIRE 2896 17536 2896 17504
WIRE 2896 17536 2800 17536
WIRE 3568 17536 3568 17456
WIRE 3664 17536 3664 17504
WIRE 3664 17536 3568 17536
WIRE -3824 17552 -3824 17520
WIRE -3664 17552 -3664 17168
WIRE 1136 17552 1104 17552
WIRE 5328 17552 5328 17488
WIRE 5712 17552 5328 17552
WIRE 5904 17552 5904 17520
WIRE 6000 17552 6000 17472
WIRE 6000 17552 5904 17552
WIRE 6880 17552 6880 17488
WIRE 7264 17552 6880 17552
WIRE 7456 17552 7456 17520
WIRE 7552 17552 7552 17472
WIRE 7552 17552 7456 17552
WIRE -64 17568 -64 17536
WIRE 160 17568 160 17536
WIRE 2704 17568 2704 17504
WIRE 2896 17568 2896 17536
WIRE 3472 17568 3472 17504
WIRE 3664 17568 3664 17536
WIRE -4560 17584 -4560 17520
WIRE -4112 17584 -4112 17520
WIRE -3408 17584 -3408 17552
WIRE 1104 17584 1104 17552
WIRE 6208 17584 6208 17552
WIRE 6464 17584 6464 17552
WIRE 6512 17584 6464 17584
WIRE 7760 17584 7760 17552
WIRE 8016 17584 8016 17552
WIRE 8064 17584 8016 17584
WIRE -3744 17600 -3744 17520
WIRE -3744 17600 -3760 17600
WIRE -3728 17600 -3744 17600
WIRE 6464 17600 6464 17584
WIRE 8016 17600 8016 17584
WIRE -5952 17616 -5952 17584
WIRE -5600 17616 -5600 17584
WIRE -2176 17616 -2176 17376
WIRE -2080 17616 -2176 17616
WIRE 32 17616 32 17584
WIRE 256 17616 256 17584
WIRE 2800 17616 2768 17616
WIRE 2832 17616 2800 17616
WIRE 3568 17616 3536 17616
WIRE 3600 17616 3568 17616
WIRE -4624 17632 -4656 17632
WIRE -4176 17632 -4208 17632
WIRE 1200 17632 1200 17600
WIRE -5344 17648 -5344 17616
WIRE -2176 17664 -2176 17616
WIRE 5712 17664 5712 17552
WIRE 5904 17664 5904 17552
WIRE 7264 17664 7264 17552
WIRE 7456 17664 7456 17552
WIRE -4656 17680 -4656 17632
WIRE -4208 17680 -4208 17632
WIRE -3664 17680 -3664 17648
WIRE -3664 17680 -3744 17680
WIRE -4560 17696 -4560 17680
WIRE -4112 17696 -4112 17680
WIRE 2704 17696 2704 17664
WIRE 2800 17696 2800 17616
WIRE 2800 17696 2704 17696
WIRE 3472 17696 3472 17664
WIRE 3568 17696 3568 17616
WIRE 3568 17696 3472 17696
WIRE -3824 17712 -3824 17648
WIRE -3664 17712 -3664 17680
WIRE -2080 17712 -2080 17616
WIRE -2080 17712 -2112 17712
WIRE -2048 17712 -2080 17712
WIRE 5648 17712 5600 17712
WIRE 6464 17712 6464 17680
WIRE 6464 17712 5968 17712
WIRE 7200 17712 7152 17712
WIRE 8016 17712 8016 17680
WIRE 8016 17712 7520 17712
WIRE -5952 17728 -5952 17696
WIRE -5600 17728 -5600 17696
WIRE 32 17728 32 17696
WIRE 256 17728 256 17696
WIRE 1200 17744 1200 17712
WIRE 6464 17744 6464 17712
WIRE 8016 17744 8016 17712
WIRE -3744 17760 -3744 17680
WIRE -3744 17760 -3760 17760
WIRE -3728 17760 -3744 17760
WIRE 2896 17760 2896 17664
WIRE 3008 17760 2896 17760
WIRE 6096 17776 6096 17520
WIRE 6192 17776 6096 17776
WIRE 7648 17776 7648 17520
WIRE 7744 17776 7648 17776
WIRE -2176 17792 -2176 17760
WIRE 5712 17792 5712 17760
WIRE 5808 17792 5712 17792
WIRE 5904 17792 5904 17760
WIRE 5904 17792 5808 17792
WIRE 7264 17792 7264 17760
WIRE 7360 17792 7264 17792
WIRE 7456 17792 7456 17760
WIRE 7456 17792 7360 17792
WIRE -4560 17808 -4560 17776
WIRE -4112 17808 -4112 17776
WIRE 2704 17808 2704 17696
WIRE 2896 17808 2896 17760
WIRE 3472 17808 3472 17696
WIRE 3664 17808 3664 17664
WIRE 6096 17824 6096 17776
WIRE 6288 17824 6288 17440
WIRE 7648 17824 7648 17776
WIRE 7840 17824 7840 17440
WIRE -3824 17856 -3824 17808
WIRE -3664 17856 -3664 17808
WIRE 2640 17856 2480 17856
WIRE 3008 17856 3008 17760
WIRE 3008 17856 2960 17856
WIRE 3408 17856 3152 17856
WIRE 3776 17856 3728 17856
WIRE 6464 17856 6464 17824
WIRE 8016 17856 8016 17824
WIRE 624 17872 624 17824
WIRE 816 17872 816 17824
WIRE 5808 17872 5808 17792
WIRE 6192 17872 6192 17776
WIRE 6192 17872 6160 17872
WIRE 6224 17872 6192 17872
WIRE 7360 17872 7360 17792
WIRE 7744 17872 7744 17776
WIRE 7744 17872 7712 17872
WIRE 7776 17872 7744 17872
WIRE 3776 17888 3776 17856
WIRE -2176 17904 -2176 17872
WIRE 3008 17904 3008 17856
WIRE -5136 17920 -5696 17920
WIRE 720 17920 688 17920
WIRE 752 17920 720 17920
WIRE 5744 17920 5712 17920
WIRE 7296 17920 7264 17920
WIRE 2704 17936 2704 17904
WIRE 2800 17936 2704 17936
WIRE 2896 17936 2896 17904
WIRE 2896 17936 2800 17936
WIRE 3472 17936 3472 17904
WIRE 3568 17936 3472 17936
WIRE 3664 17936 3664 17904
WIRE 3664 17936 3568 17936
WIRE 5712 17952 5712 17920
WIRE 6288 17952 6288 17920
WIRE 6288 17952 6192 17952
WIRE 7264 17952 7264 17920
WIRE 7840 17952 7840 17920
WIRE 7840 17952 7744 17952
WIRE 6096 17984 6096 17920
WIRE 6288 17984 6288 17952
WIRE 7648 17984 7648 17920
WIRE 7840 17984 7840 17952
WIRE -6080 18000 -6080 17952
WIRE -5888 18000 -5888 17952
WIRE 720 18000 720 17920
WIRE 816 18000 816 17968
WIRE 816 18000 720 18000
WIRE 3008 18000 3008 17968
WIRE 5808 18000 5808 17968
WIRE 7360 18000 7360 17968
WIRE 2800 18016 2800 17936
WIRE 3568 18016 3568 17936
WIRE -5504 18032 -5504 17984
WIRE -5312 18032 -5312 17984
WIRE -4272 18032 -4272 17984
WIRE 624 18032 624 17968
WIRE 816 18032 816 18000
WIRE 6192 18032 6192 17952
WIRE 6192 18032 6160 18032
WIRE 6224 18032 6192 18032
WIRE 7744 18032 7744 17952
WIRE 7744 18032 7712 18032
WIRE 7776 18032 7744 18032
WIRE -5984 18048 -6016 18048
WIRE -5952 18048 -5984 18048
WIRE 2736 18064 2704 18064
WIRE 3504 18064 3472 18064
WIRE -5408 18080 -5440 18080
WIRE -5376 18080 -5408 18080
WIRE -5136 18080 -5136 17920
WIRE -5056 18080 -5056 18032
WIRE -5056 18080 -5136 18080
WIRE 720 18080 688 18080
WIRE 752 18080 720 18080
WIRE -4448 18096 -4576 18096
WIRE 2704 18096 2704 18064
WIRE 3472 18096 3472 18064
WIRE 5808 18112 5808 18080
WIRE 6096 18112 6096 18080
WIRE 6288 18112 6288 18080
WIRE 7360 18112 7360 18080
WIRE 7648 18112 7648 18080
WIRE 7840 18112 7840 18080
WIRE -5984 18128 -5984 18048
WIRE -5888 18128 -5888 18096
WIRE -5888 18128 -5984 18128
WIRE -5056 18144 -5056 18080
WIRE 2800 18144 2800 18112
WIRE 3568 18144 3568 18112
WIRE -6080 18160 -6080 18096
WIRE -5888 18160 -5888 18128
WIRE -5408 18160 -5408 18080
WIRE -5312 18160 -5312 18128
WIRE -5312 18160 -5408 18160
WIRE 624 18160 624 18128
WIRE 720 18160 720 18080
WIRE 720 18160 624 18160
WIRE -4512 18176 -4512 18128
WIRE -5504 18192 -5504 18128
WIRE -5312 18192 -5312 18160
WIRE -4576 18192 -4576 18096
WIRE -4544 18192 -4576 18192
WIRE -5984 18208 -6016 18208
WIRE -5952 18208 -5984 18208
WIRE -4448 18208 -4448 18096
WIRE -4448 18208 -4480 18208
WIRE -4400 18208 -4448 18208
WIRE -4272 18208 -4272 18112
WIRE -4272 18208 -4320 18208
WIRE 816 18208 816 18128
WIRE 912 18208 912 17328
WIRE 912 18208 816 18208
WIRE 976 18208 912 18208
WIRE -4640 18224 -4640 18176
WIRE -4544 18224 -4640 18224
WIRE 5776 18224 5776 18176
WIRE 5968 18224 5968 18176
WIRE 7008 18224 7008 18176
WIRE 7200 18224 7200 18176
WIRE -5408 18240 -5440 18240
WIRE -5376 18240 -5408 18240
WIRE -5056 18240 -5056 18208
WIRE -4448 18256 -4448 18208
WIRE 2800 18256 2800 18224
WIRE 3568 18256 3568 18224
WIRE -4512 18272 -4512 18240
WIRE 624 18272 624 18160
WIRE 816 18272 816 18208
WIRE 5872 18272 5840 18272
WIRE 5904 18272 5872 18272
WIRE 7104 18272 7072 18272
WIRE 7136 18272 7104 18272
WIRE -6080 18288 -6080 18256
WIRE -5984 18288 -5984 18208
WIRE -5984 18288 -6080 18288
WIRE -5888 18288 -5888 18256
WIRE -5696 18288 -5696 17920
WIRE -5696 18288 -5888 18288
WIRE -4176 18304 -4176 18256
WIRE -5504 18320 -5504 18288
WIRE -5504 18320 -5888 18320
WIRE -5408 18320 -5408 18240
WIRE -5408 18320 -5504 18320
WIRE 560 18320 512 18320
WIRE 1408 18320 1408 17328
WIRE 1408 18320 880 18320
WIRE -6080 18352 -6080 18288
WIRE -5696 18352 -6080 18352
WIRE -5312 18352 -5312 18288
WIRE -5232 18352 -5312 18352
WIRE -4272 18352 -4272 18208
WIRE -4240 18352 -4272 18352
WIRE 512 18352 512 18320
WIRE 5872 18352 5872 18272
WIRE 5968 18352 5968 18320
WIRE 5968 18352 5872 18352
WIRE 7104 18352 7104 18272
WIRE 7200 18352 7200 18320
WIRE 7200 18352 7104 18352
WIRE 3376 18368 3376 18336
WIRE -5312 18384 -5312 18352
WIRE -5136 18384 -5136 18080
WIRE 5776 18384 5776 18320
WIRE 5968 18384 5968 18352
WIRE 7008 18384 7008 18320
WIRE 7200 18384 7200 18352
WIRE -6080 18400 -6080 18352
WIRE -5888 18400 -5888 18320
WIRE -5696 18400 -5696 18352
WIRE -5504 18400 -5504 18320
WIRE -4272 18400 -4272 18352
WIRE 624 18400 624 18368
WIRE 720 18400 624 18400
WIRE 816 18400 816 18368
WIRE 816 18400 720 18400
WIRE -5232 18432 -5232 18352
WIRE -5232 18432 -5248 18432
WIRE -5200 18432 -5232 18432
WIRE 5872 18432 5840 18432
WIRE 5904 18432 5872 18432
WIRE 7104 18432 7072 18432
WIRE 7136 18432 7104 18432
WIRE -6176 18448 -6176 18400
WIRE -6144 18448 -6176 18448
WIRE -5792 18448 -5824 18448
WIRE -5760 18448 -5792 18448
WIRE -5408 18448 -5440 18448
WIRE -4176 18448 -4176 18400
WIRE -4176 18448 -4208 18448
WIRE -4144 18448 -4176 18448
WIRE 720 18464 720 18400
WIRE 720 18464 480 18464
WIRE 1168 18464 944 18464
WIRE 2688 18464 2688 18416
WIRE 2880 18464 2880 18416
WIRE 3568 18464 3568 18416
WIRE 3760 18464 3760 18416
WIRE -5792 18480 -5792 18448
WIRE -5136 18512 -5136 18480
WIRE -5136 18512 -5216 18512
WIRE 480 18512 480 18464
WIRE 720 18512 720 18464
WIRE 944 18512 944 18464
WIRE 1168 18512 1168 18464
WIRE 2784 18512 2752 18512
WIRE 2816 18512 2784 18512
WIRE 3664 18512 3632 18512
WIRE 3696 18512 3664 18512
WIRE 5776 18512 5776 18480
WIRE 5776 18512 5392 18512
WIRE 5872 18512 5872 18432
WIRE 5872 18512 5776 18512
WIRE 5968 18512 5968 18480
WIRE 6080 18512 5968 18512
WIRE 6128 18512 6080 18512
WIRE 7008 18512 7008 18480
WIRE 7104 18512 7104 18432
WIRE 7104 18512 7008 18512
WIRE 7200 18512 7200 18480
WIRE 7312 18512 7200 18512
WIRE 7360 18512 7312 18512
WIRE -6080 18528 -6080 18496
WIRE -5888 18528 -5888 18496
WIRE -5888 18528 -6080 18528
WIRE -5696 18528 -5696 18496
WIRE -5504 18528 -5504 18496
WIRE -5504 18528 -5696 18528
WIRE -4272 18528 -4272 18496
WIRE -5312 18544 -5312 18480
WIRE -5136 18544 -5136 18512
WIRE 6080 18544 6080 18512
WIRE 7200 18544 7200 18512
WIRE 7200 18544 6624 18544
WIRE 7312 18544 7312 18512
WIRE -6176 18560 -6176 18448