Version 4
SHEET 1 4500 1880
WIRE 912 -96 912 -160
WIRE 912 -96 816 -96
WIRE 1040 -96 912 -96
WIRE 816 -48 816 -96
WIRE 1040 -48 1040 -96
WIRE 944 0 880 0
WIRE 976 0 944 0
WIRE 592 48 592 -16
WIRE 944 64 944 0
WIRE 1040 64 1040 48
WIRE 1040 64 944 64
WIRE 1040 80 1040 64
WIRE 816 128 816 48
WIRE 976 128 816 128
WIRE 592 160 592 128
WIRE 1040 256 1040 176
WIRE 1040 256 720 256
WIRE 1168 256 1040 256
WIRE 1216 256 1168 256
WIRE 1376 256 1296 256
WIRE 1472 256 1376 256
WIRE 1632 256 1632 160
WIRE 1632 256 1552 256
WIRE 1632 320 1632 256
WIRE 592 336 592 288
WIRE 816 352 816 128
WIRE 1040 352 1040 256
WIRE 720 400 720 256
WIRE 752 400 720 400
WIRE 1376 400 1376 256
WIRE 1376 400 1104 400
WIRE 1632 416 1632 384
WIRE 1168 464 1168 256
WIRE 816 480 816 448
WIRE 928 480 816 480
WIRE 1040 480 1040 448
WIRE 1040 480 928 480
WIRE 688 496 688 448
WIRE 592 544 592 416
WIRE 624 544 592 544
WIRE 1168 576 1168 544
WIRE 592 592 592 544
WIRE 928 592 928 480
WIRE 688 640 688 592
WIRE 688 640 656 640
WIRE 864 640 688 640
WIRE 1296 704 1296 656
WIRE 592 720 592 688
WIRE 928 720 928 688
WIRE 1296 816 1296 784
WIRE 592 832 592 800
WIRE 928 832 928 800
FLAG 928 832 0
FLAG 592 832 0
FLAG 688 448 COM
FLAG 592 288 COM
FLAG 1632 416 0
FLAG 1632 160 ANT
FLAG 1168 576 VCOGND
FLAG 1296 816 0
FLAG 1296 656 VCOGND
FLAG 592 160 0
FLAG 592 -16 COM
FLAG 912 -160 COM
SYMBOL npn 1104 352 M0
SYMATTR InstName Q1
SYMATTR Value 2N3904
SYMBOL npn 752 352 R0
SYMATTR InstName Q2
SYMATTR Value 2N3904
SYMBOL pnp 976 48 M180
SYMATTR InstName Q3
SYMATTR Value 2N3906
SYMBOL pnp 880 48 R180
WINDOW 0 55 34 Left 2
WINDOW 3 52 68 Left 2
SYMATTR InstName Q4
SYMATTR Value 2N3906
SYMBOL npn 864 592 R0
SYMATTR InstName Q5
SYMATTR Value 2N3904
SYMBOL npn 656 592 M0
SYMATTR InstName Q6
SYMATTR Value 2N3904
SYMBOL npn 624 496 R0
SYMATTR InstName Q7
SYMATTR Value 2N3904
SYMBOL current 592 336 R0
WINDOW 123 0 0 Left 0
WINDOW 39 0 0 Left 0
SYMATTR InstName I1
SYMATTR Value 35mA
SYMBOL res 576 704 R0
WINDOW 0 36 40 Left 2
WINDOW 3 36 76 Left 2
SYMATTR InstName R1
SYMATTR Value 1
SYMBOL res 912 704 R0
WINDOW 0 36 40 Left 2
WINDOW 3 36 76 Left 2
SYMATTR InstName R2
SYMATTR Value 1
SYMBOL ind 1456 272 R270
WINDOW 0 32 56 VTop 2
WINDOW 3 5 56 VBottom 2
SYMATTR InstName L1
SYMATTR Value 2mH
SYMATTR SpiceLine Ipk=100m Rser=20 Rpar=10Meg Cpar=1pF
SYMBOL cap 1616 320 R0
SYMATTR InstName C1
SYMATTR Value 8pF
SYMBOL res 1312 240 R90
WINDOW 0 0 56 VBottom 2
WINDOW 3 32 56 VTop 2
SYMATTR InstName R3
SYMATTR Value 3.3
SYMBOL res 1152 448 R0
WINDOW 0 36 40 Left 2
WINDOW 3 36 76 Left 2
SYMATTR InstName R7
SYMATTR Value 120
SYMBOL voltage 1296 688 R0
WINDOW 123 0 0 Left 0
WINDOW 39 0 0 Left 0
SYMATTR InstName V1
SYMATTR Value 2.25
SYMBOL voltage 592 32 R0
WINDOW 123 0 0 Left 0
WINDOW 39 0 0 Left 0
SYMATTR InstName V2
SYMATTR Value 4.5
SYMBOL pnp 976 176 M180
SYMATTR InstName Q15
SYMATTR Value 2N3906
TEXT 598 -144 Left 2 !.tran 0 1m 10u 1n
TEXT 1360 176 Left 2 !.ic I(L1)=0.001mA
TEXT 1040 -144 Left 2 ;BJT single OTA current sensing theremin oscillator
