Version 4
SHEET 1 8852 11680
WIRE 976 -752 -112 -752
WIRE 1600 -752 976 -752
WIRE 976 -720 976 -752
WIRE 0 -656 0 -704
WIRE 784 -640 736 -640
WIRE 976 -640 976 -672
WIRE 976 -640 864 -640
WIRE 1216 -640 1168 -640
WIRE 1408 -640 1296 -640
WIRE 400 -624 400 -672
WIRE 896 -576 896 -624
WIRE 1328 -576 1328 -624
WIRE 1520 -576 1520 -624
WIRE 0 -544 0 -576
WIRE 80 -544 0 -544
WIRE 192 -544 80 -544
WIRE 576 -544 576 -592
WIRE 608 -544 576 -544
WIRE 736 -544 736 -640
WIRE 736 -544 672 -544
WIRE 864 -544 736 -544
WIRE 976 -544 976 -640
WIRE 976 -544 928 -544
WIRE 1040 -544 976 -544
WIRE 1168 -544 1168 -640
WIRE 1168 -544 1104 -544
WIRE 1296 -544 1168 -544
WIRE 1408 -544 1408 -640
WIRE 1408 -544 1360 -544
WIRE 1488 -544 1408 -544
WIRE 1600 -544 1600 -752
WIRE 1600 -544 1552 -544
WIRE 192 -512 192 -544
WIRE 400 -512 400 -544
WIRE 896 -480 896 -512
WIRE 1328 -480 1328 -512
WIRE 1520 -480 1520 -512
WIRE 288 -464 256 -464
WIRE 336 -464 288 -464
WIRE 512 -448 512 -496
WIRE 80 -400 80 -544
WIRE 192 -368 192 -416
WIRE 288 -368 288 -464
WIRE 288 -368 192 -368
WIRE 192 -336 192 -368
WIRE 400 -288 400 -416
WIRE 512 -288 512 -368
WIRE 512 -288 400 -288
WIRE 576 -288 576 -544
WIRE 576 -288 512 -288
WIRE 1184 -272 1184 -320
WIRE 0 -256 0 -544
WIRE -112 -224 -112 -752
WIRE -32 -224 -112 -224
WIRE 656 -224 656 -272
WIRE 656 -224 32 -224
WIRE 704 -224 656 -224
WIRE 864 -224 864 -288
WIRE 864 -224 784 -224
WIRE 864 -208 864 -224
WIRE -112 -176 -112 -224
WIRE 1184 -160 1184 -192
WIRE 192 -112 192 -256
WIRE 288 -112 192 -112
WIRE 864 -112 864 -144
WIRE 192 -64 192 -112
WIRE 400 -64 400 -288
WIRE 512 -64 512 -288
WIRE 288 -16 288 -112
WIRE 288 -16 256 -16
WIRE 336 -16 288 -16
WIRE 512 48 512 16
WIRE 0 64 0 -192
WIRE 80 64 80 -336
WIRE 80 64 0 64
WIRE 192 64 192 32
WIRE 192 64 80 64
WIRE 400 80 400 32
WIRE 0 96 0 64
WIRE 400 192 400 160
WIRE 0 208 0 176
FLAG 1184 -160 0
FLAG 1184 -320 COM
FLAG 0 208 0
FLAG 0 -704 COM
FLAG 864 -288 ANT
FLAG 864 -112 0
FLAG 400 192 0
FLAG 400 -672 COM
FLAG 512 -496 COM
FLAG 512 48 0
FLAG 896 -624 COM
FLAG 896 -480 0
FLAG 1328 -624 COM
FLAG 1328 -480 0
FLAG 1520 -624 COM
FLAG 1520 -480 0
FLAG 656 -272 DRIVE
FLAG 576 -592 SENSE
FLAG -112 -176 DRVIN
SYMBOL voltage 1184 -288 R0
SYMATTR InstName V1
SYMATTR Value 3.3
SYMBOL 74LVC1GU04.asy 0 -224 R0
SYMATTR InstName U3
SYMBOL Res -16 80 R0
SYMATTR InstName R63
SYMATTR Value 4.7
SYMBOL Res -16 -672 R0
SYMATTR InstName R64
SYMATTR Value 4.7
SYMBOL ind 688 -208 R270
WINDOW 0 32 56 VTop 2
WINDOW 3 5 56 VBottom 2
SYMATTR InstName L3
SYMATTR Value 2mH
SYMATTR SpiceLine Rser=30 Cpar=1pF
SYMBOL Cap 848 -208 R0
SYMATTR InstName C_ant3
SYMATTR Value 10pF
SYMBOL pnp 336 -416 M180
WINDOW 0 64 34 Left 2
WINDOW 3 61 68 Left 2
SYMATTR InstName Q61
SYMATTR Value BC857B
SYMBOL pnp 256 -416 R180
WINDOW 0 60 32 Left 2
WINDOW 3 58 66 Left 2
SYMATTR InstName Q62
SYMATTR Value BC857B
SYMBOL npn 336 -64 R0
SYMATTR InstName Q63
SYMATTR Value BC847B
SYMBOL npn 256 -64 M0
SYMATTR InstName Q64
SYMATTR Value BC847B
SYMBOL Res 384 64 R0
SYMATTR InstName R65
SYMATTR Value 100
SYMBOL Res 384 -640 R0
SYMATTR InstName R66
SYMATTR Value 100
SYMBOL Res 496 -464 R0
SYMATTR InstName R67
SYMATTR Value 2k
SYMBOL Res 496 -80 R0
SYMATTR InstName R68
SYMATTR Value 2k
SYMBOL 74LVC1GU04.asy 896 -544 R0
SYMATTR InstName U4
SYMBOL Res 880 -656 R90
WINDOW 0 0 56 VBottom 2
WINDOW 3 32 56 VTop 2
SYMATTR InstName R69
SYMATTR Value 200k
SYMBOL Cap 672 -560 R90
WINDOW 0 0 32 VBottom 2
WINDOW 3 32 32 VTop 2
SYMATTR InstName C8
SYMATTR Value 30p
SYMBOL 74LVC1GU04.asy 1328 -544 R0
SYMATTR InstName U5
SYMBOL Res 1312 -656 R90
WINDOW 0 0 56 VBottom 2
WINDOW 3 32 56 VTop 2
SYMATTR InstName R70
SYMATTR Value 200k
SYMBOL Cap 1104 -560 R90
WINDOW 0 0 32 VBottom 2
WINDOW 3 32 32 VTop 2
SYMATTR InstName C9
SYMATTR Value 30p
SYMBOL 74LVC1GU04.asy 1520 -544 R0
SYMATTR InstName U6
SYMBOL Cap 64 -400 R0
SYMATTR InstName C12
SYMATTR Value 1µ
SYMBOL Res 176 -352 R0
SYMATTR InstName R71
SYMATTR Value 3k
TEXT 1200 -112 Left 2 !.tran 0 7m 10u 10n
TEXT 616 -144 Left 2 !.ic I(L3)=0.0001u
